// Generated for: spectre
// Generated on: Oct 15 15:49:24 2024
// Design library name: lab3_khup
// Design cell name: sim_adv_circuit
// Design view name: schematic
simulator lang=spectre
global 0 vdd!
